Master_ckt5/OutputDSS.dss
Clear

New Circuit.ckt5_Reduced pu=1.05 R1=0 X1=0.001 R0=0 X0=0.001
New Line._mdv_sub_1_lsb_mdv201 Phases=3 bus1=_mdv_sub_1_lsb.1.2.3 bus2=mdv201.1.2.3 Units=km Length=0.001 Rmatrix=[0.000999999999986                  0                  0|                 0              0.001                  0|                 0                  0   0.00100000000001|] Xmatrix=[0.01                  0                  0|    0    0.0100000000001                  0|    0                  0               0.01|] Cmatrix=[0                  0                  0| 0                  0                  0| 0                  0                  0|]
New Line.mdv201_mdv201_hn_2_793_abc1023346_int Phases=3 bus1=mdv201.1.2.3 bus2=mdv201_hn_2_793_abc1023346_int.1.2.3 Units=km Length=0.001 Rmatrix=[0.999999999964                  0                  0|              0     0.999999999966                  0|              0                  0     0.999999999962|] Xmatrix=[0.999999999968                  0                  0|              0     0.999999999967                  0|              0                  0     0.999999999964|] Cmatrix=[0                  0                  0| 0                  0                  0| 0                  0                  0|]
New Line.94743_94744 Phases=1 bus1=94743.1 bus2=94744.1 Units=km Length=0.078943197 Rmatrix=0.058 Xmatrix=0.1206 Cmatrix=0
New Line.94743_94747 Phases=1 bus1=94743.1 bus2=94747.1 Units=km Length=0.052120798 Rmatrix=0.058 Xmatrix=0.1206 Cmatrix=0
New Line.62244_62235 Phases=1 bus1=62244.3 bus2=62235.3 Units=km Length=0.042671999 Rmatrix=0.058 Xmatrix=0.1206 Cmatrix=0
New Line.62235_62233 Phases=1 bus1=62235.3 bus2=62233.3 Units=km Length=0.052425598 Rmatrix=0.058 Xmatrix=0.1206 Cmatrix=0
New Line.1144235_1144234 Phases=1 bus1=1144235.1 bus2=1144234.1 Units=km Length=0.1161288 Rmatrix=0.058 Xmatrix=0.1206 Cmatrix=0
New Line.1144234_58418 Phases=1 bus1=1144234.1 bus2=58418.1 Units=km Length=0.1130808 Rmatrix=0.058 Xmatrix=0.1206 Cmatrix=0
New Line.39754_mdv201_1160486elb_int Phases=1 bus1=39754.2 bus2=mdv201_1160486elb_int.2 Units=km Length=0.001 Rmatrix=1.000003 Xmatrix=0.99999182 Cmatrix=0
New Line.mdv201_1160486elb_int_1160486 Phases=1 bus1=mdv201_1160486elb_int.2 bus2=1160486.2 Units=km Length=0.001524 Rmatrix=0.0001 Xmatrix=0.0001 Cmatrix=0
New Line.1160486_1160481 Phases=1 bus1=1160486.2 bus2=1160481.2 Units=km Length=0.071932798 Rmatrix=0.56003998 Xmatrix=0.24495001 Cmatrix=0
New Line.1160476_1160473 Phases=1 bus1=1160476.2 bus2=1160473.2 Units=km Length=0.060959998 Rmatrix=0.56004002 Xmatrix=0.24495003 Cmatrix=0
New Line.1160473_mdv201_15008elb_int Phases=1 bus1=1160473.2 bus2=mdv201_15008elb_int.2 Units=km Length=0.001 Rmatrix=1 Xmatrix=1 Cmatrix=0
New Line.8163_8164 Phases=3 bus1=8163.1.2.3 bus2=8164.1.2.3 Units=km Length=0.084124797 Rmatrix=[0.0981333333333    0.0401333333333    0.0401333333333| 0.0401333333333    0.0981333333333    0.0401333333333| 0.0401333333333    0.0401333333333    0.0981333333334|] Xmatrix=[0.2153             0.0947             0.0947| 0.0947             0.2153             0.0947| 0.0947             0.0947             0.2153|] Cmatrix=[0                  0                  0| 0                  0                  0| 0                  0                  0|]
New Line.8164_8165 Phases=3 bus1=8164.1.2.3 bus2=8165.1.2.3 Units=km Length=0.024993599 Rmatrix=[0.0981333333333    0.0401333333333    0.0401333333333| 0.0401333333333    0.0981333333333    0.0401333333333| 0.0401333333333    0.0401333333333    0.0981333333333|] Xmatrix=[0.2153             0.0947             0.0947| 0.0947             0.2153             0.0947| 0.0947             0.0947             0.2153|] Cmatrix=[0                  0                  0| 0                  0                  0| 0                  0                  0|]
New Line.103730_39610 Phases=1 bus1=103730.2 bus2=39610.2 Units=km Length=0.019202399 Rmatrix=0.058 Xmatrix=0.1206 Cmatrix=0
New Line.39610_39599 Phases=1 bus1=39610.2 bus2=39599.2 Units=km Length=0.057302398 Rmatrix=0.058 Xmatrix=0.1206 Cmatrix=0
New Line.835_842 Phases=1 bus1=835.1 bus2=842.1 Units=km Length=0.048767998 Rmatrix=0.058 Xmatrix=0.1206 Cmatrix=0
New Line.842_844 Phases=1 bus1=842.1 bus2=844.1 Units=km Length=0.045719999 Rmatrix=0.058 Xmatrix=0.1206 Cmatrix=0
New Line.39775_39760 Phases=1 bus1=39775.2 bus2=39760.2 Units=km Length=0.060350398 Rmatrix=0.058 Xmatrix=0.1206 Cmatrix=0
New Line.39760_39761 Phases=1 bus1=39760.2 bus2=39761.2 Units=km Length=0.046329599 Rmatrix=0.058 Xmatrix=0.1206 Cmatrix=0
New Line.15004_mdv201_1160480elb_int Phases=1 bus1=15004.2 bus2=mdv201_1160480elb_int.2 Units=km Length=0.001 Rmatrix=1.0000009 Xmatrix=0.99998477 Cmatrix=0
New Line.mdv201_1160480elb_int_1160480 Phases=1 bus1=mdv201_1160480elb_int.2 bus2=1160480.2 Units=km Length=0.001524 Rmatrix=0.0001 Xmatrix=0.0001 Cmatrix=0
New Line.1160480_1160477 Phases=1 bus1=1160480.2 bus2=1160477.2 Units=km Length=0.099059997 Rmatrix=0.56004 Xmatrix=0.24495003 Cmatrix=0
New Line.1160492_mdv201_8088elb_int Phases=1 bus1=1160492.1 bus2=mdv201_8088elb_int.1 Units=km Length=0.001 Rmatrix=1 Xmatrix=1 Cmatrix=0
New Line.mdv201_8088elb_int_8088 Phases=1 bus1=mdv201_8088elb_int.1 bus2=8088.1 Units=km Length=0.001524 Rmatrix=0.0001 Xmatrix=0.0001 Cmatrix=0
New Line.8088_mdv201_1160491elb_int Phases=1 bus1=8088.1 bus2=mdv201_1160491elb_int.1 Units=km Length=0.001 Rmatrix=0.99998807 Xmatrix=0.99998059 Cmatrix=0
New Line.829_834 Phases=3 bus1=829.1.2.3 bus2=834.1.2.3 Units=km Length=0.088391997 Rmatrix=[0.0981333333333    0.0401333333333    0.0401333333333| 0.0401333333333    0.0981333333333    0.0401333333333| 0.0401333333333    0.0401333333333    0.0981333333333|] Xmatrix=[0.2153             0.0947             0.0947| 0.0947             0.2153             0.0947| 0.0947             0.0947             0.2153|] Cmatrix=[0                  0                  0| 0                  0                  0| 0                  0                  0|]
New Line.834_841 Phases=3 bus1=834.1.2.3 bus2=841.1.2.3 Units=km Length=0.076809598 Rmatrix=[0.0981333333335    0.0401333333334    0.0401333333334| 0.0401333333334    0.0981333333334    0.0401333333334| 0.0401333333334    0.0401333333334    0.0981333333335|] Xmatrix=[         0.2153             0.0947    0.0946999999999|          0.0947             0.2153             0.0947| 0.0946999999999             0.0947             0.2153|] Cmatrix=[0                  0                  0| 0                  0                  0| 0                  0                  0|]
New Line.15005_mdv201_1160478elb_int Phases=1 bus1=15005.2 bus2=mdv201_1160478elb_int.2 Units=km Length=0.001 Rmatrix=0.99998665 Xmatrix=1.0000039 Cmatrix=0
New Line.mdv201_1160478elb_int_1160478 Phases=1 bus1=mdv201_1160478elb_int.2 bus2=1160478.2 Units=km Length=0.001524 Rmatrix=0.0001 Xmatrix=0.0001 Cmatrix=0
New Line.1160478_1160469 Phases=1 bus1=1160478.2 bus2=1160469.2 Units=km Length=0.055778398 Rmatrix=0.56004002 Xmatrix=0.24495 Cmatrix=0
New Line.44582_8160 Phases=3 bus1=44582.1.2.3 bus2=8160.1.2.3 Units=km Length=0.025907999 Rmatrix=[0.0981333333334    0.0401333333333    0.0401333333332| 0.0401333333333    0.0981333333334    0.0401333333332| 0.0401333333332    0.0401333333332     0.098133333333|] Xmatrix=[0.2153             0.0947             0.0947| 0.0947             0.2153             0.0947| 0.0947             0.0947             0.2153|] Cmatrix=[0                  0                  0| 0                  0                  0| 0                  0                  0|]
New Line.8160_44583 Phases=3 bus1=8160.1.2.3 bus2=44583.1.2.3 Units=km Length=0.033223199 Rmatrix=[0.0981333333334    0.0401333333334    0.0401333333334| 0.0401333333334    0.0981333333331    0.0401333333332| 0.0401333333334    0.0401333333332    0.0981333333335|] Xmatrix=[         0.2153    0.0947000000001             0.0947| 0.0947000000001             0.2153             0.0947|          0.0947             0.0947             0.2153|] Cmatrix=[0                  0                  0| 0                  0                  0| 0                  0                  0|]
New Line.8160_104355 Phases=1 bus1=8160.2 bus2=104355.2 Units=km Length=0.001524 Rmatrix=0.058 Xmatrix=0.1206 Cmatrix=0
New Line.8160_104356 Phases=1 bus1=8160.3 bus2=104356.3 Units=km Length=0.001524 Rmatrix=0.058 Xmatrix=0.1206 Cmatrix=0
New Line.89783_89791 Phases=1 bus1=89783.3 bus2=89791.3 Units=km Length=0.052120798 Rmatrix=0.058 Xmatrix=0.1206 Cmatrix=0
New Line.89791_89813 Phases=1 bus1=89791.3 bus2=89813.3 Units=km Length=0.025603199 Rmatrix=0.058 Xmatrix=0.1206 Cmatrix=0
New Line.6584_99422 Phases=1 bus1=6584.1 bus2=99422.1 Units=km Length=0.001524 Rmatrix=0.058 Xmatrix=0.1206 Cmatrix=0
New Line.6584_6594 Phases=3 bus1=6584.1.2.3 bus2=6594.1.2.3 Units=km Length=0.059131198 Rmatrix=[0.0981333333337    0.0401333333335    0.0401333333335| 0.0401333333335    0.0981333333333    0.0401333333333| 0.0401333333335    0.0401333333333    0.0981333333333|] Xmatrix=[         0.2153    0.0947000000002    0.0947000000002| 0.0947000000002             0.2153    0.0946999999999| 0.0947000000002    0.0946999999999             0.2153|] Cmatrix=[0                  0                  0| 0                  0                  0| 0                  0                  0|]
New Line.99422_6595 Phases=1 bus1=99422.1 bus2=6595.1 Units=km Length=0.021031199 Rmatrix=0.058 Xmatrix=0.1206 Cmatrix=0
New Line.8113_8124 Phases=3 bus1=8113.1.2.3 bus2=8124.1.2.3 Units=km Length=0.064312798 Rmatrix=[0.0981333333334    0.0401333333334    0.0401333333334| 0.0401333333334    0.0981333333334    0.0401333333334| 0.0401333333334    0.0401333333334    0.0981333333336|] Xmatrix=[         0.2153    0.0946999999997             0.0947| 0.0946999999997             0.2153             0.0947|          0.0947             0.0947             0.2153|] Cmatrix=[0                  0                  0| 0                  0                  0| 0                  0                  0|]
New Line.8124_8126 Phases=3 bus1=8124.1.2.3 bus2=8126.1.2.3 Units=km Length=0.068579998 Rmatrix=[0.0981333333333    0.0401333333333    0.0401333333333| 0.0401333333333    0.0981333333333    0.0401333333333| 0.0401333333333    0.0401333333333    0.0981333333333|] Xmatrix=[         0.2153             0.0947    0.0947000000001|          0.0947             0.2153             0.0947| 0.0947000000001             0.0947             0.2153|] Cmatrix=[0                  0                  0| 0                  0                  0| 0                  0                  0|]
New Line.8124_1144243 Phases=1 bus1=8124.3 bus2=1144243.3 Units=km Length=0.001524 Rmatrix=0.058 Xmatrix=0.1206 Cmatrix=0
New Line.14880_63707 Phases=3 bus1=14880.1.2.3 bus2=63707.1.2.3 Units=km Length=0.058826398 Rmatrix=[0.0981333333333    0.0401333333333    0.0401333333333| 0.0401333333333    0.0981333333333    0.0401333333333| 0.0401333333333    0.0401333333333    0.0981333333333|] Xmatrix=[0.2153             0.0947             0.0947| 0.0947             0.2153             0.0947| 0.0947             0.0947             0.2153|] Cmatrix=[0                  0                  0| 0                  0                  0| 0                  0                  0|]
New Line.63707_8177 Phases=3 bus1=63707.1.2.3 bus2=8177.1.2.3 Units=km Length=0.071018398 Rmatrix=[0.0981333333333    0.0401333333333    0.0401333333333| 0.0401333333333    0.0981333333333    0.0401333333333| 0.0401333333333    0.0401333333333    0.0981333333333|] Xmatrix=[0.2153             0.0947             0.0947| 0.0947             0.2153             0.0947| 0.0947             0.0947             0.2153|] Cmatrix=[0                  0                  0| 0                  0                  0| 0                  0                  0|]
New Line.74449_74450 Phases=1 bus1=74449.3 bus2=74450.3 Units=km Length=0.047243998 Rmatrix=0.058 Xmatrix=0.1206 Cmatrix=0
New Line.14989_100494 Phases=1 bus1=14989.2 bus2=100494.2 Units=km Length=0.001524 Rmatrix=0.058 Xmatrix=0.1206 Cmatrix=0
New Line.14989_14994 Phases=1 bus1=14989.2 bus2=14994.2 Units=km Length=0.095097597 Rmatrix=0.058 Xmatrix=0.1206 Cmatrix=0
New Line.100494_14990 Phases=1 bus1=100494.2 bus2=14990.2 Units=km Length=0.1072896 Rmatrix=0.058 Xmatrix=0.1206 Cmatrix=0
New Line.63683_107110 Phases=2 bus1=63683.1.3 bus2=107110.1.3 Units=km Length=0.001524 Rmatrix=[0.0981333333332    0.0401333333333| 0.0401333333333    0.0981333333334|] Xmatrix=[0.2153             0.0947| 0.0947             0.2153|] Cmatrix=[0                  0| 0                  0|]
New Line.107110_63666 Phases=2 bus1=107110.1.3 bus2=63666.1.3 Units=km Length=0.075285598 Rmatrix=[0.0981333333335    0.0401333333333| 0.0401333333333    0.0981333333333|] Xmatrix=[         0.2153    0.0947000000001| 0.0947000000001             0.2153|] Cmatrix=[0                  0| 0                  0|]
New Line.1144242_8121 Phases=1 bus1=1144242.3 bus2=8121.3 Units=km Length=0.049682398 Rmatrix=0.058 Xmatrix=0.1206 Cmatrix=0
New Line.8121_8115 Phases=1 bus1=8121.3 bus2=8115.3 Units=km Length=0.045415199 Rmatrix=0.058 Xmatrix=0.1206 Cmatrix=0
New Line.8121_8125 Phases=1 bus1=8121.3 bus2=8125.3 Units=km Length=0.054559198 Rmatrix=0.058 Xmatrix=0.1206 Cmatrix=0
New Line.63668_63671 Phases=1 bus1=63668.3 bus2=63671.3 Units=km Length=0.046939198 Rmatrix=0.058 Xmatrix=0.1206 Cmatrix=0
New Line.63668_63669 Phases=1 bus1=63668.3 bus2=63669.3 Units=km Length=0.044500799 Rmatrix=0.058 Xmatrix=0.1206 Cmatrix=0
New Line.63671_63672 Phases=1 bus1=63671.3 bus2=63672.3 Units=km Length=0.049682398 Rmatrix=0.058 Xmatrix=0.1206 Cmatrix=0
New Line.89784_89781 Phases=1 bus1=89784.3 bus2=89781.3 Units=km Length=0.052730398 Rmatrix=0.058 Xmatrix=0.1206 Cmatrix=0
New Line.89781_62308 Phases=1 bus1=89781.3 bus2=62308.3 Units=km Length=0.050901598 Rmatrix=0.058 Xmatrix=0.1206 Cmatrix=0
New Line.89781_62310 Phases=1 bus1=89781.3 bus2=62310.3 Units=km Length=0.072237598 Rmatrix=0.058 Xmatrix=0.1206 Cmatrix=0
New Line.39734_39751 Phases=1 bus1=39734.1 bus2=39751.1 Units=km Length=0.068579998 Rmatrix=0.058 Xmatrix=0.1206 Cmatrix=0
New Line.39751_74443 Phases=1 bus1=39751.1 bus2=74443.1 Units=km Length=0.056692798 Rmatrix=0.058 Xmatrix=0.1206 Cmatrix=0
New Line.63657_63658 Phases=3 bus1=63657.1.2.3 bus2=63658.1.2.3 Units=km Length=0.038099999 Rmatrix=[0.0981333333333    0.0401333333333    0.0401333333333| 0.0401333333333    0.0981333333333    0.0401333333333| 0.0401333333333    0.0401333333333    0.0981333333333|] Xmatrix=[0.2153             0.0947             0.0947| 0.0947             0.2153             0.0947| 0.0947             0.0947             0.2153|] Cmatrix=[0                  0                  0| 0                  0                  0| 0                  0                  0|]
New Line.63657_63656 Phases=3 bus1=63657.1.2.3 bus2=63656.1.2.3 Units=km Length=0.047243998 Rmatrix=[0.0981333333335    0.0401333333334    0.0401333333333| 0.0401333333334    0.0981333333333    0.0401333333333| 0.0401333333333    0.0401333333333    0.0981333333332|] Xmatrix=[         0.2153    0.0946999999999    0.0947000000002| 0.0946999999999             0.2153    0.0947000000002| 0.0947000000002    0.0947000000002             0.2153|] Cmatrix=[0                  0                  0| 0                  0                  0| 0                  0                  0|]
New Line.63658_63659 Phases=3 bus1=63658.1.2.3 bus2=63659.1.2.3 Units=km Length=0.053949598 Rmatrix=[0.0981333333333    0.0401333333335    0.0401333333333| 0.0401333333335    0.0981333333337    0.0401333333333| 0.0401333333333    0.0401333333333    0.0981333333333|] Xmatrix=[         0.2153    0.0946999999992    0.0946999999999| 0.0946999999992     0.215299999998    0.0946999999999| 0.0946999999999    0.0946999999999             0.2153|] Cmatrix=[0                  0                  0| 0                  0                  0| 0                  0                  0|]
New Line.74445_74448 Phases=1 bus1=74445.2 bus2=74448.2 Units=km Length=0.044805599 Rmatrix=0.058 Xmatrix=0.1206 Cmatrix=0
New Line.74448_74451 Phases=1 bus1=74448.2 bus2=74451.2 Units=km Length=0.049377598 Rmatrix=0.058 Xmatrix=0.1206 Cmatrix=0
New Line.1012641_1012643 Phases=1 bus1=1012641.3 bus2=1012643.3 Units=km Length=0.001524 Rmatrix=0.058 Xmatrix=0.1206 Cmatrix=0
New Line.1012643_1160453 Phases=1 bus1=1012643.3 bus2=1160453.3 Units=km Length=0.099364797 Rmatrix=0.56004 Xmatrix=0.24495 Cmatrix=0
New Line.39570_39569 Phases=1 bus1=39570.1 bus2=39569.1 Units=km Length=0.065227198 Rmatrix=0.058 Xmatrix=0.1206 Cmatrix=0
New Line.39569_39574 Phases=1 bus1=39569.1 bus2=39574.1 Units=km Length=0.10668 Rmatrix=0.058 Xmatrix=0.1206 Cmatrix=0
New Line.14858_14869 Phases=1 bus1=14858.1 bus2=14869.1 Units=km Length=0.001524 Rmatrix=0.058 Xmatrix=0.1206 Cmatrix=0
New Line.14869_14870 Phases=1 bus1=14869.1 bus2=14870.1 Units=km Length=0.080467197 Rmatrix=0.058 Xmatrix=0.1206 Cmatrix=0
New Line.89796_89790 Phases=1 bus1=89796.3 bus2=89790.3 Units=km Length=0.091439997 Rmatrix=0.058 Xmatrix=0.1206 Cmatrix=0
New Line.89790_89779 Phases=1 bus1=89790.3 bus2=89779.3 Units=km Length=0.10668 Rmatrix=0.058 Xmatrix=0.1206 Cmatrix=0
New Line.28271_28272 Phases=1 bus1=28271.3 bus2=28272.3 Units=km Length=0.070103998 Rmatrix=0.058 Xmatrix=0.1206 Cmatrix=0
New Line.28271_28273 Phases=1 bus1=28271.3 bus2=28273.3 Units=km Length=0.049682398 Rmatrix=0.058 Xmatrix=0.1206 Cmatrix=0
New Line.69478_69477 Phases=3 bus1=69478.1.2.3 bus2=69477.1.2.3 Units=km Length=0.1078992 Rmatrix=[0.0981333333333    0.0401333333333    0.0401333333333| 0.0401333333333    0.0981333333333    0.0401333333333| 0.0401333333333    0.0401333333333    0.0981333333333|] Xmatrix=[ 0.215300000003    0.0947000000011    0.0947000000011| 0.0947000000011             0.2153             0.0947| 0.0947000000011             0.0947             0.2153|] Cmatrix=[0                  0                  0| 0                  0                  0| 0                  0                  0|]
New Line.69478_107993 Phases=1 bus1=69478.1 bus2=107993.1 Units=km Length=0.001524 Rmatrix=0.058 Xmatrix=0.1206 Cmatrix=0
New Line.69477_1127424 Phases=3 bus1=69477.1.2.3 bus2=1127424.1.2.3 Units=km Length=0.092659197 Rmatrix=[0.0981333333335    0.0401333333333    0.0401333333333| 0.0401333333333     0.098133333333    0.0401333333333| 0.0401333333333    0.0401333333333    0.0981333333333|] Xmatrix=[0.215300000001             0.0947             0.0947|         0.0947             0.2153    0.0947000000001|         0.0947    0.0947000000001             0.2153|] Cmatrix=[0                  0                  0| 0                  0                  0| 0                  0                  0|]
New Line.8175_8176 Phases=1 bus1=8175.3 bus2=8176.3 Units=km Length=0.046634399 Rmatrix=0.058 Xmatrix=0.1206 Cmatrix=0
New Line.8176_8180 Phases=1 bus1=8176.3 bus2=8180.3 Units=km Length=0.021031199 Rmatrix=0.058 Xmatrix=0.1206 Cmatrix=0
New Line.8184_1144230 Phases=1 bus1=8184.1 bus2=1144230.1 Units=km Length=0.001524 Rmatrix=0.058 Xmatrix=0.1206 Cmatrix=0
New Line.8184_14841 Phases=3 bus1=8184.1.2.3 bus2=14841.1.2.3 Units=km Length=0.068884798 Rmatrix=[0.0981333333334    0.0401333333334    0.0401333333334| 0.0401333333334    0.0981333333334    0.0401333333334| 0.0401333333334    0.0401333333334    0.0981333333333|] Xmatrix=[         0.2153    0.0947000000001    0.0947000000001| 0.0947000000001             0.2153             0.0947| 0.0947000000001             0.0947             0.2153|] Cmatrix=[0                  0                  0| 0                  0                  0| 0                  0                  0|]
New Line.1144230_8185 Phases=1 bus1=1144230.1 bus2=8185.1 Units=km Length=0.042367199 Rmatrix=0.058 Xmatrix=0.1206 Cmatrix=0
New Line.1144230_1144231 Phases=1 bus1=1144230.1 bus2=1144231.1 Units=km Length=0.031089599 Rmatrix=0.058 Xmatrix=0.1206 Cmatrix=0
New Line.39595_39582 Phases=3 bus1=39595.1.2.3 bus2=39582.1.2.3 Units=km Length=0.082600797 Rmatrix=[0.0981333333333    0.0401333333335    0.0401333333334| 0.0401333333335    0.0981333333336    0.0401333333334| 0.0401333333334    0.0401333333334    0.0981333333334|] Xmatrix=[         0.2153    0.0947000000002    0.0946999999999| 0.0947000000002     0.215300000001    0.0946999999997| 0.0946999999999    0.0946999999997             0.2153|] Cmatrix=[0                  0                  0| 0                  0                  0| 0                  0                  0|]
New Line.39582_103728 Phases=1 bus1=39582.1 bus2=103728.1 Units=km Length=0.001524 Rmatrix=0.058 Xmatrix=0.1206 Cmatrix=0
New Line.39582_39575 Phases=3 bus1=39582.1.2.3 bus2=39575.1.2.3 Units=km Length=0.078638397 Rmatrix=[0.0981333333335    0.0401333333335    0.0401333333335| 0.0401333333335    0.0981333333327    0.0401333333331| 0.0401333333335    0.0401333333331    0.0981333333334|] Xmatrix=[ 0.215299999997    0.0946999999987    0.0946999999988| 0.0946999999987     0.215299999999    0.0946999999997| 0.0946999999988    0.0946999999997             0.2153|] Cmatrix=[0                  0                  0| 0                  0                  0| 0                  0                  0|]
New Line.39582_103729 Phases=1 bus1=39582.2 bus2=103729.2 Units=km Length=0.001524 Rmatrix=0.058 Xmatrix=0.1206 Cmatrix=0
New Line.46385_46386 Phases=1 bus1=46385.2 bus2=46386.2 Units=km Length=0.042671999 Rmatrix=0.058 Xmatrix=0.1206 Cmatrix=0
New Line.46386_88660 Phases=1 bus1=46386.2 bus2=88660.2 Units=km Length=0.071932798 Rmatrix=0.058 Xmatrix=0.1206 Cmatrix=0
New Line.46386_46387 Phases=1 bus1=46386.2 bus2=46387.2 Units=km Length=0.071018398 Rmatrix=0.058 Xmatrix=0.1206 Cmatrix=0
New Line.106884_62244 Phases=1 bus1=106884.3 bus2=62244.3 Units=km Length=0.030784799 Rmatrix=0.058 Xmatrix=0.1206 Cmatrix=0
New Line.1160493_mdv201_8075elb_int Phases=1 bus1=1160493.1 bus2=mdv201_8075elb_int.1 Units=km Length=0.001 Rmatrix=1 Xmatrix=1 Cmatrix=0
New Line.mdv201_8075elb_int_8075 Phases=1 bus1=mdv201_8075elb_int.1 bus2=8075.1 Units=km Length=0.001524 Rmatrix=0.0001 Xmatrix=0.0001 Cmatrix=0
New Line.8075_mdv201_1160494elb_int Phases=1 bus1=8075.1 bus2=mdv201_1160494elb_int.1 Units=km Length=0.001 Rmatrix=0.99999813 Xmatrix=0.99997353 Cmatrix=0
New Line.69460_mdv201_107997elb_int Phases=1 bus1=69460.1 bus2=mdv201_107997elb_int.1 Units=km Length=0.001 Rmatrix=1 Xmatrix=1 Cmatrix=0
New Line.mdv201_107997elb_int_107997 Phases=1 bus1=mdv201_107997elb_int.1 bus2=107997.1 Units=km Length=0.001524 Rmatrix=0.0001 Xmatrix=0.0001 Cmatrix=0
New Line.1160461_8100 Phases=1 bus1=1160461.1 bus2=8100.1 Units=km Length=0.1237488 Rmatrix=0.56004 Xmatrix=0.24495 Cmatrix=0
New Line.8100_1160454 Phases=1 bus1=8100.1 bus2=1160454.1 Units=km Length=0.018897599 Rmatrix=0.56004 Xmatrix=0.24495 Cmatrix=0
New Line.8100_1160503 Phases=1 bus1=8100.1 bus2=1160503.1 Units=km Length=0.1255776 Rmatrix=0.56004 Xmatrix=0.24495 Cmatrix=0
New Line.39776_33824 Phases=1 bus1=39776.3 bus2=33824.3 Units=km Length=0.066751198 Rmatrix=0.058 Xmatrix=0.1206 Cmatrix=0
New Line.39776_39772 Phases=1 bus1=39776.3 bus2=39772.3 Units=km Length=0.024079199 Rmatrix=0.058 Xmatrix=0.1206 Cmatrix=0
New Line.33824_14979 Phases=1 bus1=33824.3 bus2=14979.3 Units=km Length=0.056997598 Rmatrix=0.058 Xmatrix=0.1206 Cmatrix=0
New Line.1140227_14873 Phases=1 bus1=1140227.1 bus2=14873.1 Units=km Length=0.040843199 Rmatrix=0.058 Xmatrix=0.1206 Cmatrix=0
New Line.14873_14875 Phases=1 bus1=14873.1 bus2=14875.1 Units=km Length=0.031699199 Rmatrix=0.058 Xmatrix=0.1206 Cmatrix=0
New Line.1160488_mdv201_62249elb_int Phases=1 bus1=1160488.2 bus2=mdv201_62249elb_int.2 Units=km Length=0.001 Rmatrix=1 Xmatrix=1 Cmatrix=0
New Line.mdv201_62249elb_int_62249 Phases=1 bus1=mdv201_62249elb_int.2 bus2=62249.2 Units=km Length=0.001524 Rmatrix=0.0001 Xmatrix=0.0001 Cmatrix=0
New Line.107106_63634 Phases=1 bus1=107106.2 bus2=63634.2 Units=km Length=0.052120798 Rmatrix=0.058 Xmatrix=0.1206 Cmatrix=0
New Line.63634_63633 Phases=1 bus1=63634.2 bus2=63633.2 Units=km Length=0.057911998 Rmatrix=0.058 Xmatrix=0.1206 Cmatrix=0
New Line.1160494_1160467 Phases=1 bus1=1160494.1 bus2=1160467.1 Units=km Length=0.041452799 Rmatrix=0.56003996 Xmatrix=0.24494999 Cmatrix=0
New Line.1160467_mdv201_8076elb_int Phases=1 bus1=1160467.1 bus2=mdv201_8076elb_int.1 Units=km Length=0.001 Rmatrix=1 Xmatrix=1 Cmatrix=0
New Line.8185_8186 Phases=1 bus1=8185.1 bus2=8186.1 Units=km Length=0.082600797 Rmatrix=0.058 Xmatrix=0.1206 Cmatrix=0
New Line.796_791 Phases=3 bus1=796.1.2.3 bus2=791.1.2.3 Units=km Length=0.059740798 Rmatrix=[0.0981333333327    0.0401333333333    0.0401333333333| 0.0401333333333    0.0981333333329    0.0401333333333| 0.0401333333333    0.0401333333333    0.0981333333334|] Xmatrix=[ 0.215299999999    0.0946999999999    0.0947000000001| 0.0946999999999             0.2153    0.0947000000001| 0.0947000000001    0.0947000000001     0.215299999999|] Cmatrix=[0                  0                  0| 0                  0                  0| 0                  0                  0|]
New Line.796_mdv202_osw_796_int Phases=3 bus1=796.1.2.3 bus2=mdv202_osw_796_int.1.2.3 Units=km Length=0.001524 Rmatrix=[0.0981333333332    0.0401333333333    0.0401333333333| 0.0401333333333    0.0981333333333    0.0401333333333| 0.0401333333333    0.0401333333333    0.0981333333334|] Xmatrix=[         0.2153             0.0947    0.0947000000001|          0.0947             0.2153             0.0947| 0.0947000000001             0.0947             0.2153|] Cmatrix=[0                  0                  0| 0                  0                  0| 0                  0                  0|]
New Line.791_788 Phases=3 bus1=791.1.2.3 bus2=788.1.2.3 Units=km Length=0.066751198 Rmatrix=[0.0981333333333    0.0401333333333    0.0401333333333| 0.0401333333333    0.0981333333333    0.0401333333333| 0.0401333333333    0.0401333333333    0.0981333333333|] Xmatrix=[0.2153             0.0947             0.0947| 0.0947             0.2153             0.0947| 0.0947             0.0947             0.2153|] Cmatrix=[0                  0                  0| 0                  0                  0| 0                  0                  0|]
New Line.62306_62303 Phases=1 bus1=62306.3 bus2=62303.3 Units=km Length=0.059740798 Rmatrix=0.058 Xmatrix=0.1206 Cmatrix=0
New Line.62303_62304 Phases=1 bus1=62303.3 bus2=62304.3 Units=km Length=0.060045598 Rmatrix=0.058 Xmatrix=0.1206 Cmatrix=0
New Line.14839_100478 Phases=1 bus1=14839.3 bus2=100478.3 Units=km Length=0.001524 Rmatrix=0.058 Xmatrix=0.1206 Cmatrix=0
New Line.100478_14846 Phases=1 bus1=100478.3 bus2=14846.3 Units=km Length=0.086258397 Rmatrix=0.058 Xmatrix=0.1206 Cmatrix=0
New Line.58441_58446 Phases=3 bus1=58441.1.2.3 bus2=58446.1.2.3 Units=km Length=0.043586399 Rmatrix=[0.0981333333333    0.0401333333333    0.0401333333332| 0.0401333333333    0.0981333333333    0.0401333333332| 0.0401333333332    0.0401333333332    0.0981333333336|] Xmatrix=[         0.2153    0.0946999999999    0.0946999999998| 0.0946999999999             0.2153             0.0947| 0.0946999999998             0.0947     0.215300000001|] Cmatrix=[0                  0                  0| 0                  0                  0| 0                  0                  0|]
New Line.58441_69647 Phases=1 bus1=58441.2 bus2=69647.2 Units=km Length=0.103632 Rmatrix=0.058 Xmatrix=0.1206 Cmatrix=0
New Line.58441_1012406 Phases=1 bus1=58441.3 bus2=1012406.3 Units=km Length=0.001524 Rmatrix=0.058 Xmatrix=0.1206 Cmatrix=0
New Line.58446_28285 Phases=3 bus1=58446.1.2.3 bus2=28285.1.2.3 Units=km Length=0.053644798 Rmatrix=[0.0981333333333    0.0401333333333    0.0401333333333| 0.0401333333333    0.0981333333333    0.0401333333333| 0.0401333333333    0.0401333333333    0.0981333333333|] Xmatrix=[0.2153             0.0947             0.0947| 0.0947             0.2153             0.0947| 0.0947             0.0947             0.2153|] Cmatrix=[0                  0                  0| 0                  0                  0| 0                  0                  0|]
New Line.112112_52515 Phases=1 bus1=112112.2 bus2=52515.2 Units=km Length=0.024383999 Rmatrix=0.058 Xmatrix=0.1206 Cmatrix=0
New Line.52515_52516 Phases=1 bus1=52515.2 bus2=52516.2 Units=km Length=0.033223199 Rmatrix=0.058 Xmatrix=0.1206 Cmatrix=0
New Line.846_98795 Phases=3 bus1=846.1.2.3 bus2=98795.1.2.3 Units=km Length=0.001524 Rmatrix=[0.0981333333333    0.0401333333333    0.0401333333333| 0.0401333333333    0.0981333333333    0.0401333333333| 0.0401333333333    0.0401333333333    0.0981333333333|] Xmatrix=[0.2153             0.0947             0.0947| 0.0947             0.2153             0.0947| 0.0947             0.0947             0.2153|] Cmatrix=[0                  0                  0| 0                  0                  0| 0                  0                  0|]
New Line.846_28199 Phases=3 bus1=846.1.2.3 bus2=28199.1.2.3 Units=km Length=0.063398398 Rmatrix=[0.0981333333333    0.0401333333333    0.0401333333333| 0.0401333333333    0.0981333333333    0.0401333333333| 0.0401333333333    0.0401333333333    0.0981333333332|] Xmatrix=[0.215300000001             0.0947             0.0947|         0.0947     0.215300000001             0.0947|         0.0947             0.0947             0.2153|] Cmatrix=[0                  0                  0| 0                  0                  0| 0                  0                  0|]
New Line.98795_847 Phases=3 bus1=98795.1.2.3 bus2=847.1.2.3 Units=km Length=0.022250399 Rmatrix=[0.0981333333334    0.0401333333333    0.0401333333334| 0.0401333333333    0.0981333333333    0.0401333333333| 0.0401333333334    0.0401333333333    0.0981333333333|] Xmatrix=[0.2153             0.0947             0.0947| 0.0947     0.215300000001             0.0947| 0.0947             0.0947             0.2153|] Cmatrix=[0                  0                  0| 0                  0                  0| 0                  0                  0|]
New Line.39623_39602 Phases=1 bus1=39623.2 bus2=39602.2 Units=km Length=0.067970398 Rmatrix=0.058 Xmatrix=0.1206 Cmatrix=0
New Line.39602_39603 Phases=1 bus1=39602.2 bus2=39603.2 Units=km Length=0.051511198 Rmatrix=0.058 Xmatrix=0.1206 Cmatrix=0
New Line.56777_56778 Phases=3 bus1=56777.1.2.3 bus2=56778.1.2.3 Units=km Length=0.102108 Rmatrix=[0.0981333333336    0.0401333333334    0.0401333333334| 0.0401333333334    0.0981333333334    0.0401333333334| 0.0401333333334    0.0401333333334    0.0981333333334|] Xmatrix=[         0.2153             0.0947    0.0947000000001|          0.0947             0.2153             0.0947| 0.0947000000001             0.0947             0.2153|] Cmatrix=[0                  0                  0| 0                  0                  0| 0                  0                  0|]
New Line.56778_1149717 Phases=3 bus1=56778.1.2.3 bus2=1149717.1.2.3 Units=km Length=0.001524 Rmatrix=[0.0981333333332    0.0401333333333    0.0401333333333| 0.0401333333333    0.0981333333334    0.0401333333333| 0.0401333333333    0.0401333333333    0.0981333333333|] Xmatrix=[0.2153             0.0947             0.0947| 0.0947             0.2153             0.0947| 0.0947             0.0947             0.2153|] Cmatrix=[0                  0                  0| 0                  0                  0| 0                  0                  0|]
New Line.56778_56781 Phases=3 bus1=56778.1.2.3 bus2=56781.1.2.3 Units=km Length=0.086258397 Rmatrix=[0.0981333333357    0.0401333333389     0.040133333335| 0.0401333333389    0.0981333333454    0.0401333333372|  0.040133333335    0.0401333333372     0.098133333335|] Xmatrix=[ 0.215299999997     0.094699999987    0.0946999999981|  0.094699999987      0.21529999997    0.0946999999958| 0.0946999999981    0.0946999999958     0.215299999997|] Cmatrix=[0                  0                  0| 0                  0                  0| 0                  0                  0|]
New Line.44586_62239 Phases=3 bus1=44586.1.2.3 bus2=62239.1.2.3 Units=km Length=0.031394399 Rmatrix=[0.0981333333333    0.0401333333333    0.0401333333333| 0.0401333333333    0.0981333333333    0.0401333333333| 0.0401333333333    0.0401333333333    0.0981333333334|] Xmatrix=[0.2153             0.0947             0.0947| 0.0947             0.2153             0.0947| 0.0947             0.0947             0.2153|] Cmatrix=[0                  0                  0| 0                  0                  0| 0                  0                  0|]
New Line.44586_62231 Phases=1 bus1=44586.3 bus2=62231.3 Units=km Length=0.017983199 Rmatrix=0.058 Xmatrix=0.1206 Cmatrix=0
New Line.62239_62242 Phases=3 bus1=62239.1.2.3 bus2=62242.1.2.3 Units=km Length=0.060959998 Rmatrix=[0.0981333333333    0.0401333333332    0.0401333333333| 0.0401333333332     0.098133333333    0.0401333333332| 0.0401333333333    0.0401333333332    0.0981333333334|] Xmatrix=[         0.2153    0.0946999999993    0.0947000000007| 0.0946999999993     0.215299999999    0.0947000000007| 0.0947000000007    0.0947000000007     0.215300000002|] Cmatrix=[0                  0                  0| 0                  0                  0| 0                  0                  0|]
New Line.46394_46393 Phases=3 bus1=46394.1.2.3 bus2=46393.1.2.3 Units=km Length=0.074066398 Rmatrix=[0.0981333333333    0.0401333333332    0.0401333333333| 0.0401333333332    0.0981333333335    0.0401333333334| 0.0401333333333    0.0401333333334    0.0981333333333|] Xmatrix=[0.2153             0.0947             0.0947| 0.0947             0.2153             0.0947| 0.0947             0.0947             0.2153|] Cmatrix=[0                  0                  0| 0                  0                  0| 0                  0                  0|]
New Line.46394_46395 Phases=3 bus1=46394.1.2.3 bus2=46395.1.2.3 Units=km Length=0.096011997 Rmatrix=[0.0981333333334    0.0401333333333    0.0401333333333| 0.0401333333333    0.0981333333336    0.0401333333334| 0.0401333333333    0.0401333333334    0.0981333333333|] Xmatrix=[         0.2153    0.0946999999999    0.0946999999999| 0.0946999999999     0.215300000001    0.0947000000005| 0.0946999999999    0.0947000000005             0.2153|] Cmatrix=[0                  0                  0| 0                  0                  0| 0                  0                  0|]
New Line.46394_1144237 Phases=1 bus1=46394.2 bus2=1144237.2 Units=km Length=0.001524 Rmatrix=0.058 Xmatrix=0.1206 Cmatrix=0
New Line.1144254_28246 Phases=1 bus1=1144254.2 bus2=28246.2 Units=km Length=0.026212799 Rmatrix=0.058 Xmatrix=0.1206 Cmatrix=0
New Line.28246_14851 Phases=1 bus1=28246.2 bus2=14851.2 Units=km Length=0.096621597 Rmatrix=0.058 Xmatrix=0.1206 Cmatrix=0
New Line.14996_39771 Phases=1 bus1=14996.2 bus2=39771.2 Units=km Length=0.049987198 Rmatrix=0.058 Xmatrix=0.1206 Cmatrix=0
New Line.39771_39752 Phases=1 bus1=39771.2 bus2=39752.2 Units=km Length=0.050596798 Rmatrix=0.058 Xmatrix=0.1206 Cmatrix=0
New Line.74432_108776 Phases=1 bus1=74432.1 bus2=108776.1 Units=km Length=0.001524 Rmatrix=0.058 Xmatrix=0.1206 Cmatrix=0
New Line.108776_74434 Phases=1 bus1=108776.1 bus2=74434.1 Units=km Length=0.1024128 Rmatrix=0.058 Xmatrix=0.1206 Cmatrix=0
New Line.1160489_mdv201_795elb_int Phases=1 bus1=1160489.1 bus2=mdv201_795elb_int.1 Units=km Length=0.001 Rmatrix=1 Xmatrix=1 Cmatrix=0
New Line.mdv201_795elb_int_795 Phases=1 bus1=mdv201_795elb_int.1 bus2=795.1 Units=km Length=0.001524 Rmatrix=0.0001 Xmatrix=0.0001 Cmatrix=0
New Line.14879_14880 Phases=3 bus1=14879.1.2.3 bus2=14880.1.2.3 Units=km Length=0.071018398 Rmatrix=[0.0981333333332    0.0401333333333    0.0401333333333| 0.0401333333333    0.0981333333333    0.0401333333333| 0.0401333333333    0.0401333333333    0.0981333333334|] Xmatrix=[         0.2153    0.0947000000002    0.0947000000002| 0.0947000000002             0.2153             0.0947| 0.0947000000002             0.0947             0.2153|] Cmatrix=[0                  0                  0| 0                  0                  0| 0                  0                  0|]
New Line.14879_1140227 Phases=1 bus1=14879.1 bus2=1140227.1 Units=km Length=0.001524 Rmatrix=0.058 Xmatrix=0.1206 Cmatrix=0
New Line.8099_8103 Phases=1 bus1=8099.3 bus2=8103.3 Units=km Length=0.038099999 Rmatrix=0.058 Xmatrix=0.1206 Cmatrix=0
New Line.8103_8104 Phases=1 bus1=8103.3 bus2=8104.3 Units=km Length=0.050596798 Rmatrix=0.058 Xmatrix=0.1206 Cmatrix=0
New Line.1000983_56768 Phases=1 bus1=1000983.1 bus2=56768.1 Units=km Length=0.030784799 Rmatrix=0.058 Xmatrix=0.1206 Cmatrix=0
New Line.56768_56770 Phases=1 bus1=56768.1 bus2=56770.1 Units=km Length=0.045415199 Rmatrix=0.058 Xmatrix=0.1206 Cmatrix=0
New Line.62265_62262 Phases=3 bus1=62265.1.2.3 bus2=62262.1.2.3 Units=km Length=0.060959998 Rmatrix=[0.0981333333333    0.0401333333333    0.0401333333334| 0.0401333333333    0.0981333333333    0.0401333333334| 0.0401333333334    0.0401333333334    0.0981333333334|] Xmatrix=[         0.2153             0.0947    0.0946999999999|          0.0947             0.2153    0.0946999999999| 0.0946999999999    0.0946999999999             0.2153|] Cmatrix=[0                  0                  0| 0                  0                  0| 0                  0                  0|]
New Line.62262_mdv201_1144239usd_int Phases=3 bus1=62262.1.2.3 bus2=mdv201_1144239usd_int.1.2.3 Units=km Length=0.001 Rmatrix=[1                  0                  0| 0     0.999999999999                  0| 0                  0                  1|] Xmatrix=[1                  0                  0| 0     0.999999999997                  0| 0                  0                  1|] Cmatrix=[0                  0                  0| 0                  0                  0| 0                  0                  0|]
New Line.39752_39753 Phases=1 bus1=39752.2 bus2=39753.2 Units=km Length=0.061569598 Rmatrix=0.058 Xmatrix=0.1206 Cmatrix=0
New Line.1017350_1017348 Phases=1 bus1=1017350.2 bus2=1017348.2 Units=km Length=0.1115568 Rmatrix=0.058 Xmatrix=0.1206 Cmatrix=0
New Line.1017348_1017349 Phases=1 bus1=1017348.2 bus2=1017349.2 Units=km Length=0.061874398 Rmatrix=0.058 Xmatrix=0.1206 Cmatrix=0
New Line.56760_56764 Phases=1 bus1=56760.1 bus2=56764.1 Units=km Length=0.057607198 Rmatrix=0.058 Xmatrix=0.1206 Cmatrix=0
New Line.56764_56772 Phases=1 bus1=56764.1 bus2=56772.1 Units=km Length=0.059131198 Rmatrix=0.058 Xmatrix=0.1206 Cmatrix=0
New Line.39620_39617 Phases=1 bus1=39620.2 bus2=39617.2 Units=km Length=0.056692798 Rmatrix=0.058 Xmatrix=0.1206 Cmatrix=0
New Line.39617_39615 Phases=1 bus1=39617.2 bus2=39615.2 Units=km Length=0.074066398 Rmatrix=0.058 Xmatrix=0.1206 Cmatrix=0
New Line.39589_39580 Phases=1 bus1=39589.1 bus2=39580.1 Units=km Length=0.019507199 Rmatrix=0.058 Xmatrix=0.1206 Cmatrix=0
New Line.39589_39577 Phases=1 bus1=39589.1 bus2=39577.1 Units=km Length=0.082905597 Rmatrix=0.058 Xmatrix=0.1206 Cmatrix=0
New Line.39580_39581 Phases=1 bus1=39580.1 bus2=39581.1 Units=km Length=0.053949598 Rmatrix=0.058 Xmatrix=0.1206 Cmatrix=0
New Line.74446_74440 Phases=1 bus1=74446.3 bus2=74440.3 Units=km Length=0.035966399 Rmatrix=0.058 Xmatrix=0.1206 Cmatrix=0
New Line.74440_74437 Phases=1 bus1=74440.3 bus2=74437.3 Units=km Length=0.063703198 Rmatrix=0.058 Xmatrix=0.1206 Cmatrix=0
New Line.58430_58429 Phases=3 bus1=58430.1.2.3 bus2=58429.1.2.3 Units=km Length=0.079552797 Rmatrix=[0.0981333333334    0.0401333333334    0.0401333333334| 0.0401333333334    0.0981333333335    0.0401333333334| 0.0401333333334    0.0401333333334    0.0981333333334|] Xmatrix=[         0.2153    0.0946999999999             0.0947| 0.0946999999999     0.215299999999    0.0946999999998|          0.0947    0.0946999999998             0.2153|] Cmatrix=[0                  0                  0| 0                  0                  0| 0                  0                  0|]
New Line.58430_111079 Phases=1 bus1=58430.2 bus2=111079.2 Units=km Length=0.001524 Rmatrix=0.058 Xmatrix=0.1206 Cmatrix=0
New Line.58429_58431 Phases=3 bus1=58429.1.2.3 bus2=58431.1.2.3 Units=km Length=0.068884798 Rmatrix=[0.0981333333335    0.0401333333333    0.0401333333333| 0.0401333333333    0.0981333333333    0.0401333333333| 0.0401333333333    0.0401333333333    0.0981333333333|] Xmatrix=[         0.2153             0.0947    0.0947000000003|          0.0947             0.2153    0.0947000000003| 0.0947000000003    0.0947000000003     0.215300000001|] Cmatrix=[0                  0                  0| 0                  0                  0| 0                  0                  0|]
New Line.28213_21655 Phases=1 bus1=28213.1 bus2=21655.1 Units=km Length=0.069189598 Rmatrix=0.058 Xmatrix=0.1206 Cmatrix=0
New Line.21655_21654 Phases=1 bus1=21655.1 bus2=21654.1 Units=km Length=0.048767998 Rmatrix=0.058 Xmatrix=0.1206 Cmatrix=0
New Line.63666_28249 Phases=2 bus1=63666.1.3 bus2=28249.1.3 Units=km Length=0.063093598 Rmatrix=[0.0981333333333    0.0401333333333| 0.0401333333333    0.0981333333334|] Xmatrix=[0.2153             0.0947| 0.0947             0.2153|] Cmatrix=[0                  0| 0                  0|]
New Line.63666_28239 Phases=1 bus1=63666.3 bus2=28239.3 Units=km Length=0.074371198 Rmatrix=0.058 Xmatrix=0.1206 Cmatrix=0
New Line.28249_28251 Phases=2 bus1=28249.1.3 bus2=28251.1.3 Units=km Length=0.045415199 Rmatrix=[0.0981333333333    0.0401333333333| 0.0401333333333    0.0981333333333|] Xmatrix=[0.2153             0.0947| 0.0947             0.2153|] Cmatrix=[0                  0| 0                  0|]
New Line.28249_28240 Phases=1 bus1=28249.3 bus2=28240.3 Units=km Length=0.053644798 Rmatrix=0.058 Xmatrix=0.1206 Cmatrix=0
New Line.105409_52524 Phases=3 bus1=105409.1.2.3 bus2=52524.1.2.3 Units=km Length=0.041452799 Rmatrix=[ 0.098133333333    0.0401333333333    0.0401333333334| 0.0401333333333    0.0981333333334    0.0401333333334| 0.0401333333334    0.0401333333334    0.0981333333331|] Xmatrix=[0.215299999998             0.0947             0.0947|         0.0947             0.2153             0.0947|         0.0947             0.0947     0.215299999999|] Cmatrix=[0                  0                  0| 0                  0                  0| 0                  0                  0|]
New Line.52524_14879 Phases=3 bus1=52524.1.2.3 bus2=14879.1.2.3 Units=km Length=0.069189598 Rmatrix=[0.0981333333332    0.0401333333335    0.0401333333334| 0.0401333333335    0.0981333333334    0.0401333333334| 0.0401333333334    0.0401333333334    0.0981333333334|] Xmatrix=[ 0.215300000001             0.0947    0.0947000000001|          0.0947             0.2153             0.0947| 0.0947000000001             0.0947             0.2153|] Cmatrix=[0                  0                  0| 0                  0                  0| 0                  0                  0|]
New Line.74424_39733 Phases=1 bus1=74424.1 bus2=39733.1 Units=km Length=0.073456798 Rmatrix=0.058 Xmatrix=0.1206 Cmatrix=0
New Line.39733_39734 Phases=1 bus1=39733.1 bus2=39734.1 Units=km Length=0.069799198 Rmatrix=0.058 Xmatrix=0.1206 Cmatrix=0
New Line.8111_8113 Phases=3 bus1=8111.1.2.3 bus2=8113.1.2.3 Units=km Length=0.064312798 Rmatrix=[0.0981333333333    0.0401333333333    0.0401333333333| 0.0401333333333    0.0981333333333    0.0401333333333| 0.0401333333333    0.0401333333333    0.0981333333333|] Xmatrix=[0.2153             0.0947             0.0947| 0.0947             0.2153             0.0947| 0.0947             0.0947             0.2153|] Cmatrix=[0                  0                  0| 0                  0                  0| 0                  0                  0|]
New Line.836_837 Phases=1 bus1=836.2 bus2=837.2 Units=km Length=0.054559198 Rmatrix=0.058 Xmatrix=0.1206 Cmatrix=0
New Line.837_39625 Phases=1 bus1=837.2 bus2=39625.2 Units=km Length=0.054559198 Rmatrix=0.058 Xmatrix=0.1206 Cmatrix=0
New Line.1023346_mdv201_796usd_int Phases=3 bus1=1023346.1.2.3 bus2=mdv201_796usd_int.1.2.3 Units=km Length=0.001 Rmatrix=[1                  0                  0| 0     0.999999999999                  0| 0                  0                  1|] Xmatrix=[1.00000000001                  0                  0|             0     0.999999999998                  0|             0                  0     0.999999999996|] Cmatrix=[0                  0                  0| 0                  0                  0| 0                  0                  0|]
New Line.mdv201_796usd_int_796 Phases=3 bus1=mdv201_796usd_int.1.2.3 bus2=796.1.2.3 Units=km Length=0.001524 Rmatrix=[0.0981333333331    0.0401333333333    0.0401333333333| 0.0401333333333    0.0981333333333    0.0401333333334| 0.0401333333333    0.0401333333334    0.0981333333335|] Xmatrix=[ 0.215300000002    0.0947000000002    0.0947000000002| 0.0947000000002     0.215299999999             0.0947| 0.0947000000002             0.0947     0.215299999999|] Cmatrix=[0                  0                  0| 0                  0                  0| 0                  0                  0|]
New Line.28262_28263 Phases=1 bus1=28262.3 bus2=28263.3 Units=km Length=0.042671999 Rmatrix=0.058 Xmatrix=0.1206 Cmatrix=0
New Line.52519_52521 Phases=1 bus1=52519.2 bus2=52521.2 Units=km Length=0.070713598 Rmatrix=0.058 Xmatrix=0.1206 Cmatrix=0
New Line.52519_39588 Phases=1 bus1=52519.2 bus2=39588.2 Units=km Length=0.058826398 Rmatrix=0.058 Xmatrix=0.1206 Cmatrix=0
New Line.52521_52522 Phases=1 bus1=52521.2 bus2=52522.2 Units=km Length=0.081381597 Rmatrix=0.058 Xmatrix=0.1206 Cmatrix=0
New Line.28199_28196 Phases=3 bus1=28199.1.2.3 bus2=28196.1.2.3 Units=km Length=0.066141598 Rmatrix=[0.0981333333333    0.0401333333333    0.0401333333333| 0.0401333333333    0.0981333333333    0.0401333333333| 0.0401333333333    0.0401333333333    0.0981333333333|] Xmatrix=[0.2153             0.0947             0.0947| 0.0947             0.2153             0.0947| 0.0947             0.0947             0.2153|] Cmatrix=[0                  0                  0| 0                  0                  0| 0                  0                  0|]
New Line.28196_28193 Phases=3 bus1=28196.1.2.3 bus2=28193.1.2.3 Units=km Length=0.056997598 Rmatrix=[0.0981333333333    0.0401333333333    0.0401333333333| 0.0401333333333    0.0981333333333    0.0401333333333| 0.0401333333333    0.0401333333333    0.0981333333333|] Xmatrix=[0.2153             0.0947             0.0947| 0.0947             0.2153             0.0947| 0.0947             0.0947             0.2153|] Cmatrix=[0                  0                  0| 0                  0                  0| 0                  0                  0|]
New Line.28264_28262 Phases=1 bus1=28264.3 bus2=28262.3 Units=km Length=0.064007998 Rmatrix=0.058 Xmatrix=0.1206 Cmatrix=0
New Line.28229_52531 Phases=1 bus1=28229.3 bus2=52531.3 Units=km Length=0.059131198 Rmatrix=0.058 Xmatrix=0.1206 Cmatrix=0
New Line.14870_63726 Phases=1 bus1=14870.1 bus2=63726.1 Units=km Length=0.068884798 Rmatrix=0.058 Xmatrix=0.1206 Cmatrix=0
New Line.46398_46399 Phases=1 bus1=46398.3 bus2=46399.3 Units=km Length=0.032613599 Rmatrix=0.058 Xmatrix=0.1206 Cmatrix=0
New Line.46399_46401 Phases=1 bus1=46399.3 bus2=46401.3 Units=km Length=0.041452799 Rmatrix=0.058 Xmatrix=0.1206 Cmatrix=0
New Line.46399_104582 Phases=1 bus1=46399.3 bus2=104582.3 Units=km Length=0.001524 Rmatrix=0.058 Xmatrix=0.1206 Cmatrix=0
...
New Reactor.MDV_SUB_1_HSB Bus1=SourceBus Bus2=MDV_SUB_1_HSB R=0 X=29.0353 Normamps=1000 Emergamps=2000
New Transformer.MDV_SUB_1 Phases=3 Windings=2 Buses=[MDV_SUB_1_HSB _MDV_SUB_1_LSB.1.2.3.0] Conns=[delta wye] kVs=[115         12.47] kVAs=[10000  10000] XHL=6.9717 %Noloadloss=0 %imag=0 sub=y Wdg=1 %R=0.33119 Wdg=2 %R=0.33119
New Transformer.MDV201_1144260FUSE_1B Phases=1 XHL=2 %Loadloss=1.5 %Noloadloss=0 %imag=0 Wdg=1 Bus=1144260.2 kV=7.1996 kVA=25 Wdg=2 Bus=X_1144260.2 kV=0.24 kVA=25
New Transformer.MDV201_HN_2_461_C62251_1C Phases=1 XHL=2 %Loadloss=1.4 %Noloadloss=0 %imag=0 Wdg=1 Bus=62251.3 kV=7.1996 kVA=37.5 Wdg=2 Bus=X_62251.3 kV=0.24 kVA=37.5
New Transformer.MDV201_6569ELB_1B Phases=1 XHL=2 %Loadloss=1.4 %Noloadloss=0 %imag=0 Wdg=1 Bus=6569.2 kV=7.1996 kVA=37.5 Wdg=2 Bus=X_6569.2 kV=0.24 kVA=37.5
New Transformer.MDV201_HN_2_464_C62232_1C Phases=1 XHL=2 %Loadloss=1.5 %Noloadloss=0 %imag=0 Wdg=1 Bus=62232.3 kV=7.1996 kVA=25 Wdg=2 Bus=X_62232.3 kV=0.24 kVA=25
New Transformer.MDV201_HN_2_849_B94730_1B Phases=1 XHL=2 %Loadloss=1.5 %Noloadloss=0 %imag=0 Wdg=1 Bus=94730.2 kV=7.1996 kVA=25 Wdg=2 Bus=X_94730.2 kV=0.24 kVA=25
New Transformer.MDV201_HN_2_683_A39601_1A Phases=1 XHL=2 %Loadloss=1.5 %Noloadloss=0 %imag=0 Wdg=1 Bus=39601.1 kV=7.1996 kVA=25 Wdg=2 Bus=X_39601.1 kV=0.24 kVA=25
New Transformer.MDV201_HN_2_093_ABC63714_1B Phases=1 XHL=2 %Loadloss=1.65 %Noloadloss=0 %imag=0 Wdg=1 Bus=63714.2 kV=7.1996 kVA=15 Wdg=2 Bus=X_63714.2 kV=0.24 kVA=15
New Transformer.MDV201_HN_2_414_A843_1A Phases=1 XHL=2 %Loadloss=1.5 %Noloadloss=0 %imag=0 Wdg=1 Bus=843.1 kV=7.1996 kVA=25 Wdg=2 Bus=X_843.1 kV=0.24 kVA=25
New Transformer.MDV201_HN_2_523_C856_1C Phases=1 XHL=2 %Loadloss=1.5 %Noloadloss=0 %imag=0 Wdg=1 Bus=856.3 kV=7.1996 kVA=25 Wdg=2 Bus=X_856.3 kV=0.24 kVA=25
New Transformer.MDV201_DA_8_946_B56776_1B Phases=1 XHL=2 %Loadloss=1.5 %Noloadloss=0 %imag=0 Wdg=1 Bus=56776.2 kV=7.1996 kVA=25 Wdg=2 Bus=X_56776.2 kV=0.24 kVA=25
New Transformer.MDV201_HN_2_398_B63633_1B Phases=1 XHL=2 %Loadloss=1.5 %Noloadloss=0 %imag=0 Wdg=1 Bus=63633.2 kV=7.1996 kVA=25 Wdg=2 Bus=X_63633.2 kV=0.24 kVA=25
New Transformer.MDV201_DA_8_924_A56786_1A Phases=1 XHL=2 %Loadloss=1.5 %Noloadloss=0 %imag=0 Wdg=1 Bus=56786.1 kV=7.1996 kVA=25 Wdg=2 Bus=X_56786.1 kV=0.24 kVA=25
New Transformer.MDV201_HN_2_955_B39752_1B Phases=1 XHL=2 %Loadloss=1.5 %Noloadloss=0 %imag=0 Wdg=1 Bus=39752.2 kV=7.1996 kVA=25 Wdg=2 Bus=X_39752.2 kV=0.24 kVA=25
New Transformer.MDV201_HN_2_843_B69621_1B Phases=1 XHL=2 %Loadloss=1.5 %Noloadloss=0 %imag=0 Wdg=1 Bus=69621.2 kV=7.1996 kVA=25 Wdg=2 Bus=X_69621.2 kV=0.24 kVA=25
New Transformer.MDV201_HN_2_675_C89783_1C Phases=1 XHL=2 %Loadloss=1.5 %Noloadloss=0 %imag=0 Wdg=1 Bus=89783.3 kV=7.1996 kVA=25 Wdg=2 Bus=X_89783.3 kV=0.24 kVA=25
New Transformer.MDV201_HN_2_403_B792_1B Phases=1 XHL=2 %Loadloss=1.5 %Noloadloss=0 %imag=0 Wdg=1 Bus=792.2 kV=7.1996 kVA=25 Wdg=2 Bus=X_792.2 kV=0.24 kVA=25
New Transformer.MDV201_HN_2_528_C8154_1C Phases=1 XHL=2 %Loadloss=1.5 %Noloadloss=0 %imag=0 Wdg=1 Bus=8154.3 kV=7.1996 kVA=25 Wdg=2 Bus=X_8154.3 kV=0.24 kVA=25
New Transformer.MDV201_C_1_370_B69485_1B Phases=1 XHL=2 %Loadloss=1.65 %Noloadloss=0 %imag=0 Wdg=1 Bus=69485.2 kV=7.1996 kVA=15 Wdg=2 Bus=X_69485.2 kV=0.24 kVA=15
New Transformer.MDV201_HN_2_949_C8180_1C Phases=1 XHL=2 %Loadloss=1.5 %Noloadloss=0 %imag=0 Wdg=1 Bus=8180.3 kV=7.1996 kVA=25 Wdg=2 Bus=X_8180.3 kV=0.24 kVA=25
New Transformer.MDV201_HN_2_837_B39584_1B Phases=1 XHL=2 %Loadloss=1.5 %Noloadloss=0 %imag=0 Wdg=1 Bus=39584.2 kV=7.1996 kVA=25 Wdg=2 Bus=X_39584.2 kV=0.24 kVA=25
New Transformer.MDV201_HN_2_669_C89789_1C Phases=1 XHL=2 %Loadloss=1.5 %Noloadloss=0 %imag=0 Wdg=1 Bus=89789.3 kV=7.1996 kVA=25 Wdg=2 Bus=X_89789.3 kV=0.24 kVA=25
New Transformer.MDV201_HN_2_433_B787_1B Phases=1 XHL=2 %Loadloss=1.3 %Noloadloss=0 %imag=0 Wdg=1 Bus=787.2 kV=7.1996 kVA=50 Wdg=2 Bus=X_787.2 kV=0.24 kVA=50
New Transformer.MDV201_HN_2_459_C62259_1C Phases=1 XHL=2 %Loadloss=1.5 %Noloadloss=0 %imag=0 Wdg=1 Bus=62259.3 kV=7.1996 kVA=25 Wdg=2 Bus=X_62259.3 kV=0.24 kVA=25
New Transformer.MDV201_HN_2_942_C89791_1C Phases=1 XHL=2 %Loadloss=1.5 %Noloadloss=0 %imag=0 Wdg=1 Bus=89791.3 kV=7.1996 kVA=25 Wdg=2 Bus=X_89791.3 kV=0.24 kVA=25
New Transformer.MDV201_HN_2_663_C62247_1C Phases=1 XHL=2 %Loadloss=1.5 %Noloadloss=0 %imag=0 Wdg=1 Bus=62247.3 kV=7.1996 kVA=25 Wdg=2 Bus=X_62247.3 kV=0.24 kVA=25
New Transformer.MDV201_HN_2_159_B6572_1B Phases=1 XHL=2 %Loadloss=1.65 %Noloadloss=0 %imag=0 Wdg=1 Bus=6572.2 kV=7.1996 kVA=15 Wdg=2 Bus=X_6572.2 kV=0.24 kVA=15
New Transformer.MDV201_HN_2_070_A1144231_1A Phases=1 XHL=2 %Loadloss=1.65 %Noloadloss=0 %imag=0 Wdg=1 Bus=1144231.1 kV=7.1996 kVA=15 Wdg=2 Bus=X_1144231.1 kV=0.24 kVA=15
New Transformer.MDV201_HN_2_422_A790_1A Phases=1 XHL=2 %Loadloss=1.5 %Noloadloss=0 %imag=0 Wdg=1 Bus=790.1 kV=7.1996 kVA=25 Wdg=2 Bus=X_790.1 kV=0.24 kVA=25
New Transformer.MDV201_HN_2_389_B63636_1B Phases=1 XHL=2 %Loadloss=1.4 %Noloadloss=0 %imag=0 Wdg=1 Bus=63636.2 kV=7.1996 kVA=37.5 Wdg=2 Bus=X_63636.2 kV=0.24 kVA=37.5
New Transformer.MDV201_HN_2_936_B14995_1B Phases=1 XHL=2 %Loadloss=1.4 %Noloadloss=0 %imag=0 Wdg=1 Bus=14995.2 kV=7.1996 kVA=37.5 Wdg=2 Bus=X_14995.2 kV=0.24 kVA=37.5
New Transformer.MDV201_HN_2_821_B39618_1B Phases=1 XHL=2 %Loadloss=1.5 %Noloadloss=0 %imag=0 Wdg=1 Bus=39618.2 kV=7.1996 kVA=25 Wdg=2 Bus=X_39618.2 kV=0.24 kVA=25
New Transformer.MDV201_HN_2_656_A14864_1A Phases=1 XHL=2 %Loadloss=1.5 %Noloadloss=0 %imag=0 Wdg=1 Bus=14864.1 kV=7.1996 kVA=25 Wdg=2 Bus=X_14864.1 kV=0.24 kVA=25
New Transformer.MDV201_HN_2_304_A8174_1A Phases=1 XHL=2 %Loadloss=1.5 %Noloadloss=0 %imag=0 Wdg=1 Bus=8174.1 kV=7.1996 kVA=25 Wdg=2 Bus=X_8174.1 kV=0.24 kVA=25
New Transformer.MDV201_63677FUSE_1A Phases=1 XHL=2 %Loadloss=1.5 %Noloadloss=0 %imag=0 Wdg=1 Bus=63677.1 kV=7.1996 kVA=25 Wdg=2 Bus=X_63677.1 kV=0.24 kVA=25
New Transformer.MDV201_HN_2_357_C28293_1C Phases=1 XHL=2 %Loadloss=1.65 %Noloadloss=0 %imag=0 Wdg=1 Bus=28293.3 kV=7.1996 kVA=15 Wdg=2 Bus=X_28293.3 kV=0.24 kVA=15
New Transformer.MDV201_HN_2_489_C8104_1C Phases=1 XHL=2 %Loadloss=1.65 %Noloadloss=0 %imag=0 Wdg=1 Bus=8104.3 kV=7.1996 kVA=15 Wdg=2 Bus=X_8104.3 kV=0.24 kVA=15
New Transformer.MDV201_HN_2_650_A28242_1A Phases=1 XHL=2 %Loadloss=1.5 %Noloadloss=0 %imag=0 Wdg=1 Bus=28242.1 kV=7.1996 kVA=25 Wdg=2 Bus=X_28242.1 kV=0.24 kVA=25
New Transformer.MDV201_HN_2_537_C8094_1C Phases=1 XHL=2 %Loadloss=1.3 %Noloadloss=0 %imag=0 Wdg=1 Bus=8094.3 kV=7.1996 kVA=50 Wdg=2 Bus=X_8094.3 kV=0.24 kVA=50
New Transformer.MDV201_HN_21095_C1148537_1C Phases=1 XHL=2 %Loadloss=1.5 %Noloadloss=0 %imag=0 Wdg=1 Bus=1148537.3 kV=7.1996 kVA=25 Wdg=2 Bus=X_1148537.3 kV=0.24 kVA=25
New Transformer.MDV201_HN_2_283_ABC14857_1B Phases=1 XHL=2 %Loadloss=1.5 %Noloadloss=0 %imag=0 Wdg=1 Bus=14857.2 kV=7.1996 kVA=25 Wdg=2 Bus=X_14857.2 kV=0.24 kVA=25
New Transformer.MDV201_DA_8_155_ABC46395_1C Phases=1 XHL=2 %Loadloss=1.65 %Noloadloss=0 %imag=0 Wdg=1 Bus=46395.3 kV=7.1996 kVA=15 Wdg=2 Bus=X_46395.3 kV=0.24 kVA=15
New Transformer.MDV201_HN_1_380_C1012407_1C Phases=1 XHL=2 %Loadloss=1.4 %Noloadloss=0 %imag=0 Wdg=1 Bus=1012407.3 kV=7.1996 kVA=37.5 Wdg=2 Bus=X_1012407.3 kV=0.24 kVA=37.5
New Transformer.MDV201_C_1_124_ABC69481_1B Phases=1 XHL=2 %Loadloss=1.4 %Noloadloss=0 %imag=0 Wdg=1 Bus=69481.2 kV=7.1996 kVA=37.5 Wdg=2 Bus=X_69481.2 kV=0.24 kVA=37.5
New Transformer.MDV201_112113FUSE_1A Phases=1 XHL=2 %Loadloss=1.5 %Noloadloss=0 %imag=0 Wdg=1 Bus=112113.1 kV=7.1996 kVA=25 Wdg=2 Bus=X_112113.1 kV=0.24 kVA=25
New Transformer.MDV201_C_1_162_A69459_1A Phases=1 XHL=2 %Loadloss=1.5 %Noloadloss=0 %imag=0 Wdg=1 Bus=69459.1 kV=7.1996 kVA=25 Wdg=2 Bus=X_69459.1 kV=0.24 kVA=25
New Transformer.MDV201_HN_2_644_A28238_1A Phases=1 XHL=2 %Loadloss=1.5 %Noloadloss=0 %imag=0 Wdg=1 Bus=28238.1 kV=7.1996 kVA=25 Wdg=2 Bus=X_28238.1 kV=0.24 kVA=25
New Transformer.MDV201_HN_2_147_C14840_1C Phases=1 XHL=2 %Loadloss=1.4 %Noloadloss=0 %imag=0 Wdg=1 Bus=14840.3 kV=7.1996 kVA=37.5 Wdg=2 Bus=X_14840.3 kV=0.24 kVA=37.5
New Transformer.MDV201_HN_2_012_C28259_1C Phases=1 XHL=2 %Loadloss=1.3 %Noloadloss=0 %imag=0 Wdg=1 Bus=28259.3 kV=7.1996 kVA=50 Wdg=2 Bus=X_28259.3 kV=0.24 kVA=50
New Transformer.MDV201_HN_2_016_ABC63680_1C Phases=1 XHL=2 %Loadloss=1.65 %Noloadloss=0 %imag=0 Wdg=1 Bus=63680.3 kV=7.1996 kVA=15 Wdg=2 Bus=X_63680.3 kV=0.24 kVA=15
New Transformer.MDV201_HN_2_408_ABC63655_1B Phases=1 XHL=2 %Loadloss=1.5 %Noloadloss=0 %imag=0 Wdg=1 Bus=63655.2 kV=7.1996 kVA=25 Wdg=2 Bus=X_63655.2 kV=0.24 kVA=25
New Transformer.MDV201_1144240FUSE_1A Phases=1 XHL=2 %Loadloss=1.5 %Noloadloss=0 %imag=0 Wdg=1 Bus=1144240.1 kV=7.1996 kVA=25 Wdg=2 Bus=X_1144240.1 kV=0.24 kVA=25
New Transformer.MDV201_HN_2_907_A39581_1A Phases=1 XHL=2 %Loadloss=1.5 %Noloadloss=0 %imag=0 Wdg=1 Bus=39581.1 kV=7.1996 kVA=25 Wdg=2 Bus=X_39581.1 kV=0.24 kVA=25
New Transformer.MDV201_HN_2_803_B837_1B Phases=1 XHL=2 %Loadloss=1.4 %Noloadloss=0 %imag=0 Wdg=1 Bus=837.2 kV=7.1996 kVA=37.5 Wdg=2 Bus=X_837.2 kV=0.24 kVA=37.5
New Transformer.MDV201_HN_2_638_C28237_1C Phases=1 XHL=2 %Loadloss=1.5 %Noloadloss=0 %imag=0 Wdg=1 Bus=28237.3 kV=7.1996 kVA=25 Wdg=2 Bus=X_28237.3 kV=0.24 kVA=25
New Transformer.MDV201_HN_2_107_A39589_1A Phases=1 XHL=2 %Loadloss=1.5 %Noloadloss=0 %imag=0 Wdg=1 Bus=39589.1 kV=7.1996 kVA=25 Wdg=2 Bus=X_39589.1 kV=0.24 kVA=25
New Transformer.MDV201_DA_8_202_C74456_1C Phases=1 XHL=2 %Loadloss=1.5 %Noloadloss=0 %imag=0 Wdg=1 Bus=74456.3 kV=7.1996 kVA=25 Wdg=2 Bus=X_74456.3 kV=0.24 kVA=25
New Transformer.MDV201_HN_2_029_ABC62262_1B Phases=1 XHL=2 %Loadloss=1.65 %Noloadloss=0 %imag=0 Wdg=1 Bus=62262.2 kV=7.1996 kVA=15 Wdg=2 Bus=X_62262.2 kV=0.24 kVA=15
New Transformer.MDV201_HN_2_165_C39776_1C Phases=1 XHL=2 %Loadloss=1.4 %Noloadloss=0 %imag=0 Wdg=1 Bus=39776.3 kV=7.1996 kVA=37.5 Wdg=2 Bus=X_39776.3 kV=0.24 kVA=37.5
New Transformer.MDV201_DA_8_861_B1149720_1B Phases=1 XHL=2 %Loadloss=1.5 %Noloadloss=0 %imag=0 Wdg=1 Bus=1149720.2 kV=7.1996 kVA=25 Wdg=2 Bus=X_1149720.2 kV=0.24 kVA=25
New Transformer.MDV201_C_1_409_A8138_1A Phases=1 XHL=2 %Loadloss=1.4 %Noloadloss=0 %imag=0 Wdg=1 Bus=8138.1 kV=7.1996 kVA=37.5 Wdg=2 Bus=X_8138.1 kV=0.24 kVA=37.5
New Transformer.MDV201_C_1_399_A21654_1A Phases=1 XHL=2 %Loadloss=1.4 %Noloadloss=0 %imag=0 Wdg=1 Bus=21654.1 kV=7.1996 kVA=37.5 Wdg=2 Bus=X_21654.1 kV=0.24 kVA=37.5
New Transformer.MDV201_HN_2_632_C28235_1C Phases=1 XHL=2 %Loadloss=1.5 %Noloadloss=0 %imag=0 Wdg=1 Bus=28235.3 kV=7.1996 kVA=25 Wdg=2 Bus=X_28235.3 kV=0.24 kVA=25
New Transformer.MDV201_HN_2_320_C28302_1C Phases=1 XHL=2 %Loadloss=1.65 %Noloadloss=0 %imag=0 Wdg=1 Bus=28302.3 kV=7.1996 kVA=15 Wdg=2 Bus=X_28302.3 kV=0.24 kVA=15
New Transformer.MDV201_HN_2_386_B811_1B Phases=1 XHL=2 %Loadloss=1.5 %Noloadloss=0 %imag=0 Wdg=1 Bus=811.2 kV=7.1996 kVA=25 Wdg=2 Bus=X_811.2 kV=0.24 kVA=25
New Transformer.MDV201_107997ELB_1A Phases=1 XHL=2 %Loadloss=1.4 %Noloadloss=0 %imag=0 Wdg=1 Bus=107997.1 kV=7.1996 kVA=37.5 Wdg=2 Bus=X_107997.1 kV=0.24 kVA=37.5
New Transformer.MDV201_HN_2_491_C8114_1C Phases=1 XHL=2 %Loadloss=1.5 %Noloadloss=0 %imag=0 Wdg=1 Bus=8114.3 kV=7.1996 kVA=25 Wdg=2 Bus=X_8114.3 kV=0.24 kVA=25
New Transformer.MDV201_HN_2_118_ABC28287_1A Phases=1 XHL=2 %Loadloss=1.5 %Noloadloss=0 %imag=0 Wdg=1 Bus=28287.1 kV=7.1996 kVA=25 Wdg=2 Bus=X_28287.1 kV=0.24 kVA=25
New Transformer.MDV201_39756ELB_1B Phases=1 XHL=2 %Loadloss=1.5 %Noloadloss=0 %imag=0 Wdg=1 Bus=39756.2 kV=7.1996 kVA=25 Wdg=2 Bus=X_39756.2 kV=0.24 kVA=25
New Transformer.MDV201_DA_8_148_ABC56777_1B Phases=1 XHL=2 %Loadloss=1.5 %Noloadloss=0 %imag=0 Wdg=1 Bus=56777.2 kV=7.1996 kVA=25 Wdg=2 Bus=X_56777.2 kV=0.24 kVA=25
New Transformer.MDV201_DA_8_687_B74448_1B Phases=1 XHL=2 %Loadloss=1.3 %Noloadloss=0 %imag=0 Wdg=1 Bus=74448.2 kV=7.1996 kVA=50 Wdg=2 Bus=X_74448.2 kV=0.24 kVA=50
New Transformer.MDV201_HN_2_878_B1144266_1B Phases=1 XHL=2 %Loadloss=1.5 %Noloadloss=0 %imag=0 Wdg=1 Bus=1144266.2 kV=7.1996 kVA=25 Wdg=2 Bus=X_1144266.2 kV=0.24 kVA=25
New Transformer.MDV201_HN_2_760_ABC28208_1A Phases=1 XHL=2 %Loadloss=1.65 %Noloadloss=0 %imag=0 Wdg=1 Bus=28208.1 kV=7.1996 kVA=15 Wdg=2 Bus=X_28208.1 kV=0.24 kVA=15
New Transformer.MDV201_HN_2_760_ABC28208_1B Phases=1 XHL=2 %Loadloss=1.65 %Noloadloss=0 %imag=0 Wdg=1 Bus=28208.2 kV=7.1996 kVA=15 Wdg=2 Bus=X_28208.2 kV=0.24 kVA=15
New Transformer.MDV201_HN_2_760_ABC28208_1C Phases=1 XHL=2 %Loadloss=1.65 %Noloadloss=0 %imag=0 Wdg=1 Bus=28208.3 kV=7.1996 kVA=15 Wdg=2 Bus=X_28208.3 kV=0.24 kVA=15
New Transformer.MDV201_HN_2_626_C14867_1C Phases=1 XHL=2 %Loadloss=1.5 %Noloadloss=0 %imag=0 Wdg=1 Bus=14867.3 kV=7.1996 kVA=25 Wdg=2 Bus=X_14867.3 kV=0.24 kVA=25
New Transformer.MDV201_HN_2_073_A8183_1A Phases=1 XHL=2 %Loadloss=1.4 %Noloadloss=0 %imag=0 Wdg=1 Bus=8183.1 kV=7.1996 kVA=37.5 Wdg=2 Bus=X_8183.1 kV=0.24 kVA=37.5
New Transformer.MDV201_DA_8_360_B8205_1B Phases=1 XHL=2 %Loadloss=1.5 %Noloadloss=0 %imag=0 Wdg=1 Bus=8205.2 kV=7.1996 kVA=25 Wdg=2 Bus=X_8205.2 kV=0.24 kVA=25
...